
*** ChampSim Multicore Out-of-Order Simulator ***

Warmup Instructions: 1000
Simulation Instructions: 10000
Number of CPUs: 1
LLC sets: 4096
LLC ways: 16
Off-chip DRAM Size: 4096 MB Channels: 1 Width: 64-bit Data Rate: 3200 MT/s

CPU 0 runs dpc3_traces/401.bzip2-38B.champsimtrace.xz
CPU 0 Bimodal branch predictor
